SOL 101
CEND
  TITLE = Conduction
  ECHO = NONE
  DISPLACEMENT(PLOT) = ALL
  LOAD = 2
  SPC = 1
BEGIN BULK
$ ***************************************************************************
$   Written by : Femap
$   Version    : 2021.2.0
$   Translator : Simcenter Nastran
$   From Model : S:\aricciar\20210823_hotline\20220310_thermal\obliqueParallelogram.modfem
$   Date       : Tue Mar  1 16:44:32 2022
$   Output To  : S:\aricciar\20210823_hotline\20220310_thermal\
$ ***************************************************************************
$             
PARAM,PRGPST,NO
PARAM,POST,-1
PARAM,OGEOM,NO
PARAM,AUTOSPC,YES
PARAM,K6ROT,100.
PARAM,GRDPNT,0
CORD2C         1       0      0.      0.      0.      0.      0.      1.+FEMAPC1
+FEMAPC1      1.      0.      1.        
CORD2S         2       0      0.      0.      0.      0.      0.      1.+FEMAPC2
+FEMAPC2      1.      0.      1.        
$ Femap Property 1 : dummy
PSHELL         1       1    .001       1               1              0.
$ Femap Material 1 : Dummy
MAT1           1   2.9+7             .327.3315-4   6.6-6     70.        +       
+        215000. 240000. 156000.
MAT4           1      1.   38.647.3315-4        
$
$ Add permanent single point constraints for DOF 2-6.
$
$GRDSET                                                 PS
GRDSET                                                  23456
$
$ SPCD and SPC1 created by Femap using dummy SOL 101 case
$
$ Femap Load Set 2 : DummyTemp
SPCD           2       1       1    273.
SPCD           2       2       1    273.
SPCD           2       3       1    273.
SPCD           2       4       1    273.
SPCD           2       5       1    273.
SPCD           2       6       1    273.
SPCD           2       7       1    273.
SPCD           2       8       1    273.
SPCD           2       9       1    273.
SPCD           2      10       1    273.
SPCD           2      11       1    273.
SPCD           2      12       1    273.
SPCD           2      13       1    273.
SPCD           2      14       1    273.
SPCD           2      15       1    273.
SPCD           2      16       1    273.
SPCD           2      17       1    273.
SPCD           2      18       1    273.
SPCD           2      19       1    273.
SPCD           2      20       1    273.
$ ... 180 like lines cut
$ Femap Constraint Set 1 : Fixed Boundary 
SPC1           1  123456       1
SPC1           1  123456       2
SPC1           1  123456       3
SPC1           1  123456       4
SPC1           1  123456       5
SPC1           1  123456       6
SPC1           1  123456       7
SPC1           1  123456       8
SPC1           1  123456       9
SPC1           1  123456      10
SPC1           1  123456      11
SPC1           1  123456      12
SPC1           1  123456      13
SPC1           1  123456      14
SPC1           1  123456      15
SPC1           1  123456      16
SPC1           1  123456      17
SPC1           1  123456      18
SPC1           1  123456      19
SPC1           1  123456      20
$ ... 180 like lines cut

GRID           1       0      0.      0.      0.       0
GRID           2       0    .006      0.      0.       0
GRID           3       0    .012      0.      0.       0
GRID           4       0    .018      0.      0.       0
GRID           5       0    .024      0.      0.       0
GRID           6       0     .03      0.      0.       0
GRID           7       0    .036      0.      0.       0
GRID           8       0    .042      0.      0.       0
GRID           9       0    .048      0.      0.       0
GRID          10       0    .054      0.      0.       0
GRID          11       0     .06      0.      0.       0
GRID          12       0    .066      0.      0.       0
GRID          13       0    .072      0.      0.       0
GRID          14       0    .078      0.      0.       0
GRID          15       0    .084      0.      0.       0
GRID          16       0     .09      0.      0.       0
GRID          17       0    .096      0.      0.       0
GRID          18       0    .102      0.      0.       0
GRID          19       0    .108      0.      0.       0
GRID          20       0    .114      0.      0.       0
$ ... 2581 like lines cut
CQUAD4     10401       1      51     103    2802      50                
CQUAD4     10402       1      50    2802    2803      49                
CQUAD4     10403       1      49    2803    2804      48                
CQUAD4     10404       1      48    2804    2805      47                
CQUAD4     10405       1      47    2805    2806      46                
CQUAD4     10406       1      46    2806    2807      45                
CQUAD4     10407       1      45    2807    2808      44                
CQUAD4     10408       1      44    2808    2809      43                
CQUAD4     10409       1      43    2809    2810      42                
CQUAD4     10410       1      42    2810    2811      41                
CQUAD4     10411       1      41    2811    2812      40                
CQUAD4     10412       1      40    2812    2813      39                
CQUAD4     10413       1      39    2813    2814      38                
CQUAD4     10414       1      38    2814    2815      37                
CQUAD4     10415       1      37    2815    2816      36                
CQUAD4     10416       1      36    2816    2817      35                
CQUAD4     10417       1      35    2817    2818      34                
CQUAD4     10418       1      34    2818    2819      33                
CQUAD4     10419       1      33    2819    2820      32                
CQUAD4     10420       1      32    2820    2821      31                
$ ... 2480 like lines cut
ENDDATA 5a9ac331
